Circuit: * C:\Users\Cody\Documents\GitHub\Electronic-Compass\Schematics\PMOS Switch\PMOS switch.asc

Warning: Multiple definitions of model "irf1405" Type: Vdmos1
Direct Newton iteration for .op point succeeded.

Date: Sat Nov 16 11:35:54 2013
Total elapsed time: 0.120 seconds.

tnom = 27
temp = 27
method = modified trap
totiter = 4387
traniter = 4366
tranpoints = 1639
accept = 1522
rejected = 117
matrix size = 31
fillins = 2
solver = Normal
Matrix Compiler1: 1.57 KB object code size  0.9/0.5/[0.3]
Matrix Compiler2: 2.37 KB object code size  0.7/1.0/[0.5]


