Circuit: * C:\Users\Cody\Desktop\PMOS switch.asc

Warning: Multiple definitions of model "irf1405" Type: Vdmos1
Direct Newton iteration for .op point succeeded.
Heightened Def Con from 1 +++++++++++++++++to 1
Heightened Def Con from 3 +++++++++++++++++to 3
Heightened Def Con from 5 +++++++++++++++++to 5
Heightened Def Con from 7 +++++++++++++++++to 7
Heightened Def Con from 9 +++++++++++++++++to 9

Date: Wed Nov 06 13:25:10 2013
Total elapsed time: 0.046 seconds.

tnom = 27
temp = 27
method = modified trap
totiter = 10125
traniter = 10109
tranpoints = 1917
accept = 1297
rejected = 710
matrix size = 5
fillins = 0
solver = Normal
Matrix Compiler1: 132 bytes object code size  0.0/0.1/[0.0]
Matrix Compiler2: off  [0.0]/0.1/0.1


