Circuit: * C:\Users\Cody\Documents\GitHub\Electronic-Compass\Schematics\PMOS Switch\PMOS switch.asc

Warning: Multiple definitions of model "irf1405" Type: Vdmos1
Direct Newton iteration for .op point succeeded.

Date: Tue Nov 19 11:00:40 2013
Total elapsed time: 0.159 seconds.

tnom = 27
temp = 27
method = modified trap
totiter = 4634
traniter = 4613
tranpoints = 1680
accept = 1547
rejected = 133
matrix size = 44
fillins = 12
solver = Normal
Matrix Compiler1: 2.75 KB object code size  1.6/1.0/[0.5]
Matrix Compiler2: 3.61 KB object code size  1.1/1.3/[0.6]


