Circuit: * C:\Users\Cody\Documents\GitHub\Electronic-Compass\Schematics\PMOS Switch\PMOS switch.asc

Warning: Multiple definitions of model "irf1405" Type: Vdmos1
Direct Newton iteration for .op point succeeded.

Date: Sat Nov 16 11:05:28 2013
Total elapsed time: 0.190 seconds.

tnom = 27
temp = 27
method = modified trap
totiter = 4387
traniter = 4366
tranpoints = 1639
accept = 1522
rejected = 117
matrix size = 31
fillins = 2
solver = Normal
Matrix Compiler1: 1.57 KB object code size  1.0/0.4/[0.1]
Matrix Compiler2: off  [0.5]/0.6/0.5


