Circuit: * C:\Users\Cody\Documents\GitHub\Electronic-Compass\Schematics\PMOS Switch\PMOS switch.asc

Warning: Multiple definitions of model "irf1405" Type: Vdmos1
Direct Newton iteration for .op point succeeded.

Date: Sat Nov 16 10:54:17 2013
Total elapsed time: 0.086 seconds.

tnom = 27
temp = 27
method = modified trap
totiter = 3536
traniter = 3515
tranpoints = 1306
accept = 1259
rejected = 47
matrix size = 18
fillins = 2
solver = Normal
Matrix Compiler1: 870 bytes object code size  0.5/0.2/[0.1]
Matrix Compiler2: off  [0.2]/0.4/0.4


